
---------- Begin Simulation Statistics ----------
simSeconds                                   0.000100                       # Number of seconds simulated (Second)
simTicks                                       200001                       # Number of ticks simulated (Tick)
finalTick                                      200001                       # Number of ticks from beginning of simulation (restored from checkpoints and never reset) (Tick)
simFreq                                    2000000000                       # The number of ticks per simulated second ((Tick/Second))
hostSeconds                                      0.37                       # Real time elapsed on the host (Second)
hostTickRate                                   545375                       # The number of ticks simulated per host second (ticks/s) ((Tick/Second))
hostMemory                                     717064                       # Number of bytes of host memory used (Byte)
system.clk_domain.clock                             2                       # Clock period in ticks (Tick)
system.cpu.power_state.pwrStateResidencyTicks::UNDEFINED       200001                       # Cumulative time (in ticks) in various power states (Tick)
system.mem_ctrls0.priorityMinLatency     0.000000000000                       # per QoS priority minimum request to response latency (Second)
system.mem_ctrls0.priorityMaxLatency     0.000000000000                       # per QoS priority maximum request to response latency (Second)
system.mem_ctrls0.numReadWriteTurnArounds            0                       # Number of turnarounds from READ to WRITE (Count)
system.mem_ctrls0.numWriteReadTurnArounds            0                       # Number of turnarounds from WRITE to READ (Count)
system.mem_ctrls0.numStayReadState                 24                       # Number of times bus staying in READ state (Count)
system.mem_ctrls0.numStayWriteState                 0                       # Number of times bus staying in WRITE state (Count)
system.mem_ctrls0.readReqs                          0                       # Number of read requests accepted (Count)
system.mem_ctrls0.writeReqs                         0                       # Number of write requests accepted (Count)
system.mem_ctrls0.readBursts                        0                       # Number of controller read bursts, including those serviced by the write queue (Count)
system.mem_ctrls0.writeBursts                       0                       # Number of controller write bursts, including those merged in the write queue (Count)
system.mem_ctrls0.servicedByWrQ                     0                       # Number of controller read bursts serviced by the write queue (Count)
system.mem_ctrls0.mergedWrBursts                    0                       # Number of controller write bursts merged with an existing one (Count)
system.mem_ctrls0.neitherReadNorWriteReqs            0                       # Number of requests that are neither read nor write (Count)
system.mem_ctrls0.avgRdQLen                      0.00                       # Average read queue length when enqueuing ((Count/Tick))
system.mem_ctrls0.avgWrQLen                      0.00                       # Average write queue length when enqueuing ((Count/Tick))
system.mem_ctrls0.numRdRetry                        0                       # Number of times read queue was full causing retry (Count)
system.mem_ctrls0.numWrRetry                        0                       # Number of times write queue was full causing retry (Count)
system.mem_ctrls0.readPktSize::0                    0                       # Read request sizes (log2) (Count)
system.mem_ctrls0.readPktSize::1                    0                       # Read request sizes (log2) (Count)
system.mem_ctrls0.readPktSize::2                    0                       # Read request sizes (log2) (Count)
system.mem_ctrls0.readPktSize::3                    0                       # Read request sizes (log2) (Count)
system.mem_ctrls0.readPktSize::4                    0                       # Read request sizes (log2) (Count)
system.mem_ctrls0.readPktSize::5                    0                       # Read request sizes (log2) (Count)
system.mem_ctrls0.readPktSize::6                    0                       # Read request sizes (log2) (Count)
system.mem_ctrls0.writePktSize::0                   0                       # Write request sizes (log2) (Count)
system.mem_ctrls0.writePktSize::1                   0                       # Write request sizes (log2) (Count)
system.mem_ctrls0.writePktSize::2                   0                       # Write request sizes (log2) (Count)
system.mem_ctrls0.writePktSize::3                   0                       # Write request sizes (log2) (Count)
system.mem_ctrls0.writePktSize::4                   0                       # Write request sizes (log2) (Count)
system.mem_ctrls0.writePktSize::5                   0                       # Write request sizes (log2) (Count)
system.mem_ctrls0.writePktSize::6                   0                       # Write request sizes (log2) (Count)
system.mem_ctrls0.rdQLenPdf::0                      0                       # What read queue length does an incoming req see (Count)
system.mem_ctrls0.rdQLenPdf::1                      0                       # What read queue length does an incoming req see (Count)
system.mem_ctrls0.rdQLenPdf::2                      0                       # What read queue length does an incoming req see (Count)
system.mem_ctrls0.rdQLenPdf::3                      0                       # What read queue length does an incoming req see (Count)
system.mem_ctrls0.rdQLenPdf::4                      0                       # What read queue length does an incoming req see (Count)
system.mem_ctrls0.rdQLenPdf::5                      0                       # What read queue length does an incoming req see (Count)
system.mem_ctrls0.rdQLenPdf::6                      0                       # What read queue length does an incoming req see (Count)
system.mem_ctrls0.rdQLenPdf::7                      0                       # What read queue length does an incoming req see (Count)
system.mem_ctrls0.rdQLenPdf::8                      0                       # What read queue length does an incoming req see (Count)
system.mem_ctrls0.rdQLenPdf::9                      0                       # What read queue length does an incoming req see (Count)
system.mem_ctrls0.rdQLenPdf::10                     0                       # What read queue length does an incoming req see (Count)
system.mem_ctrls0.rdQLenPdf::11                     0                       # What read queue length does an incoming req see (Count)
system.mem_ctrls0.rdQLenPdf::12                     0                       # What read queue length does an incoming req see (Count)
system.mem_ctrls0.rdQLenPdf::13                     0                       # What read queue length does an incoming req see (Count)
system.mem_ctrls0.rdQLenPdf::14                     0                       # What read queue length does an incoming req see (Count)
system.mem_ctrls0.rdQLenPdf::15                     0                       # What read queue length does an incoming req see (Count)
system.mem_ctrls0.rdQLenPdf::16                     0                       # What read queue length does an incoming req see (Count)
system.mem_ctrls0.rdQLenPdf::17                     0                       # What read queue length does an incoming req see (Count)
system.mem_ctrls0.rdQLenPdf::18                     0                       # What read queue length does an incoming req see (Count)
system.mem_ctrls0.rdQLenPdf::19                     0                       # What read queue length does an incoming req see (Count)
system.mem_ctrls0.rdQLenPdf::20                     0                       # What read queue length does an incoming req see (Count)
system.mem_ctrls0.rdQLenPdf::21                     0                       # What read queue length does an incoming req see (Count)
system.mem_ctrls0.rdQLenPdf::22                     0                       # What read queue length does an incoming req see (Count)
system.mem_ctrls0.rdQLenPdf::23                     0                       # What read queue length does an incoming req see (Count)
system.mem_ctrls0.rdQLenPdf::24                     0                       # What read queue length does an incoming req see (Count)
system.mem_ctrls0.rdQLenPdf::25                     0                       # What read queue length does an incoming req see (Count)
system.mem_ctrls0.rdQLenPdf::26                     0                       # What read queue length does an incoming req see (Count)
system.mem_ctrls0.rdQLenPdf::27                     0                       # What read queue length does an incoming req see (Count)
system.mem_ctrls0.rdQLenPdf::28                     0                       # What read queue length does an incoming req see (Count)
system.mem_ctrls0.rdQLenPdf::29                     0                       # What read queue length does an incoming req see (Count)
system.mem_ctrls0.rdQLenPdf::30                     0                       # What read queue length does an incoming req see (Count)
system.mem_ctrls0.rdQLenPdf::31                     0                       # What read queue length does an incoming req see (Count)
system.mem_ctrls0.wrQLenPdf::0                      0                       # What write queue length does an incoming req see (Count)
system.mem_ctrls0.wrQLenPdf::1                      0                       # What write queue length does an incoming req see (Count)
system.mem_ctrls0.wrQLenPdf::2                      0                       # What write queue length does an incoming req see (Count)
system.mem_ctrls0.wrQLenPdf::3                      0                       # What write queue length does an incoming req see (Count)
system.mem_ctrls0.wrQLenPdf::4                      0                       # What write queue length does an incoming req see (Count)
system.mem_ctrls0.wrQLenPdf::5                      0                       # What write queue length does an incoming req see (Count)
system.mem_ctrls0.wrQLenPdf::6                      0                       # What write queue length does an incoming req see (Count)
system.mem_ctrls0.wrQLenPdf::7                      0                       # What write queue length does an incoming req see (Count)
system.mem_ctrls0.wrQLenPdf::8                      0                       # What write queue length does an incoming req see (Count)
system.mem_ctrls0.wrQLenPdf::9                      0                       # What write queue length does an incoming req see (Count)
system.mem_ctrls0.wrQLenPdf::10                     0                       # What write queue length does an incoming req see (Count)
system.mem_ctrls0.wrQLenPdf::11                     0                       # What write queue length does an incoming req see (Count)
system.mem_ctrls0.wrQLenPdf::12                     0                       # What write queue length does an incoming req see (Count)
system.mem_ctrls0.wrQLenPdf::13                     0                       # What write queue length does an incoming req see (Count)
system.mem_ctrls0.wrQLenPdf::14                     0                       # What write queue length does an incoming req see (Count)
system.mem_ctrls0.wrQLenPdf::15                     0                       # What write queue length does an incoming req see (Count)
system.mem_ctrls0.wrQLenPdf::16                     0                       # What write queue length does an incoming req see (Count)
system.mem_ctrls0.wrQLenPdf::17                     0                       # What write queue length does an incoming req see (Count)
system.mem_ctrls0.wrQLenPdf::18                     0                       # What write queue length does an incoming req see (Count)
system.mem_ctrls0.wrQLenPdf::19                     0                       # What write queue length does an incoming req see (Count)
system.mem_ctrls0.wrQLenPdf::20                     0                       # What write queue length does an incoming req see (Count)
system.mem_ctrls0.wrQLenPdf::21                     0                       # What write queue length does an incoming req see (Count)
system.mem_ctrls0.wrQLenPdf::22                     0                       # What write queue length does an incoming req see (Count)
system.mem_ctrls0.wrQLenPdf::23                     0                       # What write queue length does an incoming req see (Count)
system.mem_ctrls0.wrQLenPdf::24                     0                       # What write queue length does an incoming req see (Count)
system.mem_ctrls0.wrQLenPdf::25                     0                       # What write queue length does an incoming req see (Count)
system.mem_ctrls0.wrQLenPdf::26                     0                       # What write queue length does an incoming req see (Count)
system.mem_ctrls0.wrQLenPdf::27                     0                       # What write queue length does an incoming req see (Count)
system.mem_ctrls0.wrQLenPdf::28                     0                       # What write queue length does an incoming req see (Count)
system.mem_ctrls0.wrQLenPdf::29                     0                       # What write queue length does an incoming req see (Count)
system.mem_ctrls0.wrQLenPdf::30                     0                       # What write queue length does an incoming req see (Count)
system.mem_ctrls0.wrQLenPdf::31                     0                       # What write queue length does an incoming req see (Count)
system.mem_ctrls0.wrQLenPdf::32                     0                       # What write queue length does an incoming req see (Count)
system.mem_ctrls0.wrQLenPdf::33                     0                       # What write queue length does an incoming req see (Count)
system.mem_ctrls0.wrQLenPdf::34                     0                       # What write queue length does an incoming req see (Count)
system.mem_ctrls0.wrQLenPdf::35                     0                       # What write queue length does an incoming req see (Count)
system.mem_ctrls0.wrQLenPdf::36                     0                       # What write queue length does an incoming req see (Count)
system.mem_ctrls0.wrQLenPdf::37                     0                       # What write queue length does an incoming req see (Count)
system.mem_ctrls0.wrQLenPdf::38                     0                       # What write queue length does an incoming req see (Count)
system.mem_ctrls0.wrQLenPdf::39                     0                       # What write queue length does an incoming req see (Count)
system.mem_ctrls0.wrQLenPdf::40                     0                       # What write queue length does an incoming req see (Count)
system.mem_ctrls0.wrQLenPdf::41                     0                       # What write queue length does an incoming req see (Count)
system.mem_ctrls0.wrQLenPdf::42                     0                       # What write queue length does an incoming req see (Count)
system.mem_ctrls0.wrQLenPdf::43                     0                       # What write queue length does an incoming req see (Count)
system.mem_ctrls0.wrQLenPdf::44                     0                       # What write queue length does an incoming req see (Count)
system.mem_ctrls0.wrQLenPdf::45                     0                       # What write queue length does an incoming req see (Count)
system.mem_ctrls0.wrQLenPdf::46                     0                       # What write queue length does an incoming req see (Count)
system.mem_ctrls0.wrQLenPdf::47                     0                       # What write queue length does an incoming req see (Count)
system.mem_ctrls0.wrQLenPdf::48                     0                       # What write queue length does an incoming req see (Count)
system.mem_ctrls0.wrQLenPdf::49                     0                       # What write queue length does an incoming req see (Count)
system.mem_ctrls0.wrQLenPdf::50                     0                       # What write queue length does an incoming req see (Count)
system.mem_ctrls0.wrQLenPdf::51                     0                       # What write queue length does an incoming req see (Count)
system.mem_ctrls0.wrQLenPdf::52                     0                       # What write queue length does an incoming req see (Count)
system.mem_ctrls0.wrQLenPdf::53                     0                       # What write queue length does an incoming req see (Count)
system.mem_ctrls0.wrQLenPdf::54                     0                       # What write queue length does an incoming req see (Count)
system.mem_ctrls0.wrQLenPdf::55                     0                       # What write queue length does an incoming req see (Count)
system.mem_ctrls0.wrQLenPdf::56                     0                       # What write queue length does an incoming req see (Count)
system.mem_ctrls0.wrQLenPdf::57                     0                       # What write queue length does an incoming req see (Count)
system.mem_ctrls0.wrQLenPdf::58                     0                       # What write queue length does an incoming req see (Count)
system.mem_ctrls0.wrQLenPdf::59                     0                       # What write queue length does an incoming req see (Count)
system.mem_ctrls0.wrQLenPdf::60                     0                       # What write queue length does an incoming req see (Count)
system.mem_ctrls0.wrQLenPdf::61                     0                       # What write queue length does an incoming req see (Count)
system.mem_ctrls0.wrQLenPdf::62                     0                       # What write queue length does an incoming req see (Count)
system.mem_ctrls0.wrQLenPdf::63                     0                       # What write queue length does an incoming req see (Count)
system.mem_ctrls0.bytesReadWrQ                      0                       # Total number of bytes read from write queue (Byte)
system.mem_ctrls0.bytesReadSys                      0                       # Total read bytes from the system interface side (Byte)
system.mem_ctrls0.bytesWrittenSys                   0                       # Total written bytes from the system interface side (Byte)
system.mem_ctrls0.avgRdBWSys               0.00000000                       # Average system read bandwidth in Byte/s ((Byte/Second))
system.mem_ctrls0.avgWrBWSys               0.00000000                       # Average system write bandwidth in Byte/s ((Byte/Second))
system.mem_ctrls0.totGap                            0                       # Total gap between requests (Tick)
system.mem_ctrls0.avgGap                          nan                       # Average gap between requests ((Tick/Count))
system.mem_ctrls0.dram.readBursts                   0                       # Number of DRAM read bursts (Count)
system.mem_ctrls0.dram.writeBursts                  0                       # Number of DRAM write bursts (Count)
system.mem_ctrls0.dram.perBankRdBursts::0            0                       # Per bank write bursts (Count)
system.mem_ctrls0.dram.perBankRdBursts::1            0                       # Per bank write bursts (Count)
system.mem_ctrls0.dram.perBankRdBursts::2            0                       # Per bank write bursts (Count)
system.mem_ctrls0.dram.perBankRdBursts::3            0                       # Per bank write bursts (Count)
system.mem_ctrls0.dram.perBankRdBursts::4            0                       # Per bank write bursts (Count)
system.mem_ctrls0.dram.perBankRdBursts::5            0                       # Per bank write bursts (Count)
system.mem_ctrls0.dram.perBankRdBursts::6            0                       # Per bank write bursts (Count)
system.mem_ctrls0.dram.perBankRdBursts::7            0                       # Per bank write bursts (Count)
system.mem_ctrls0.dram.perBankRdBursts::8            0                       # Per bank write bursts (Count)
system.mem_ctrls0.dram.perBankRdBursts::9            0                       # Per bank write bursts (Count)
system.mem_ctrls0.dram.perBankRdBursts::10            0                       # Per bank write bursts (Count)
system.mem_ctrls0.dram.perBankRdBursts::11            0                       # Per bank write bursts (Count)
system.mem_ctrls0.dram.perBankRdBursts::12            0                       # Per bank write bursts (Count)
system.mem_ctrls0.dram.perBankRdBursts::13            0                       # Per bank write bursts (Count)
system.mem_ctrls0.dram.perBankRdBursts::14            0                       # Per bank write bursts (Count)
system.mem_ctrls0.dram.perBankRdBursts::15            0                       # Per bank write bursts (Count)
system.mem_ctrls0.dram.perBankWrBursts::0            0                       # Per bank write bursts (Count)
system.mem_ctrls0.dram.perBankWrBursts::1            0                       # Per bank write bursts (Count)
system.mem_ctrls0.dram.perBankWrBursts::2            0                       # Per bank write bursts (Count)
system.mem_ctrls0.dram.perBankWrBursts::3            0                       # Per bank write bursts (Count)
system.mem_ctrls0.dram.perBankWrBursts::4            0                       # Per bank write bursts (Count)
system.mem_ctrls0.dram.perBankWrBursts::5            0                       # Per bank write bursts (Count)
system.mem_ctrls0.dram.perBankWrBursts::6            0                       # Per bank write bursts (Count)
system.mem_ctrls0.dram.perBankWrBursts::7            0                       # Per bank write bursts (Count)
system.mem_ctrls0.dram.perBankWrBursts::8            0                       # Per bank write bursts (Count)
system.mem_ctrls0.dram.perBankWrBursts::9            0                       # Per bank write bursts (Count)
system.mem_ctrls0.dram.perBankWrBursts::10            0                       # Per bank write bursts (Count)
system.mem_ctrls0.dram.perBankWrBursts::11            0                       # Per bank write bursts (Count)
system.mem_ctrls0.dram.perBankWrBursts::12            0                       # Per bank write bursts (Count)
system.mem_ctrls0.dram.perBankWrBursts::13            0                       # Per bank write bursts (Count)
system.mem_ctrls0.dram.perBankWrBursts::14            0                       # Per bank write bursts (Count)
system.mem_ctrls0.dram.perBankWrBursts::15            0                       # Per bank write bursts (Count)
system.mem_ctrls0.dram.totQLat                      0                       # Total ticks spent queuing (Tick)
system.mem_ctrls0.dram.totBusLat                    0                       # Total ticks spent in databus transfers (Tick)
system.mem_ctrls0.dram.totMemAccLat                 0                       # Total ticks spent from burst creation until serviced by the DRAM (Tick)
system.mem_ctrls0.dram.avgQLat                    nan                       # Average queueing delay per DRAM burst ((Tick/Count))
system.mem_ctrls0.dram.avgBusLat                  nan                       # Average bus latency per DRAM burst ((Tick/Count))
system.mem_ctrls0.dram.avgMemAccLat               nan                       # Average memory access latency per DRAM burst ((Tick/Count))
system.mem_ctrls0.dram.readRowHits                  0                       # Number of row buffer hits during reads (Count)
system.mem_ctrls0.dram.writeRowHits                 0                       # Number of row buffer hits during writes (Count)
system.mem_ctrls0.dram.readRowHitRate             nan                       # Row buffer hit rate for reads (Ratio)
system.mem_ctrls0.dram.writeRowHitRate            nan                       # Row buffer hit rate for writes (Ratio)
system.mem_ctrls0.dram.bytesRead                    0                       # Total number of bytes read from DRAM (Byte)
system.mem_ctrls0.dram.bytesWritten                 0                       # Total number of bytes written to DRAM (Byte)
system.mem_ctrls0.dram.avgRdBW                      0                       # Average DRAM read bandwidth in MiBytes/s ((Byte/Second))
system.mem_ctrls0.dram.avgWrBW                      0                       # Average DRAM write bandwidth in MiBytes/s ((Byte/Second))
system.mem_ctrls0.dram.peakBW                12800.00                       # Theoretical peak bandwidth in MiByte/s ((Byte/Second))
system.mem_ctrls0.dram.busUtil                   0.00                       # Data bus utilization in percentage (Ratio)
system.mem_ctrls0.dram.busUtilRead               0.00                       # Data bus utilization in percentage for reads (Ratio)
system.mem_ctrls0.dram.busUtilWrite              0.00                       # Data bus utilization in percentage for writes (Ratio)
system.mem_ctrls0.dram.pageHitRate                nan                       # Row buffer hit rate, read and write combined (Ratio)
system.mem_ctrls0.dram.power_state.pwrStateResidencyTicks::UNDEFINED       200001                       # Cumulative time (in ticks) in various power states (Tick)
system.mem_ctrls0.dram.rank0.actEnergy              0                       # Energy for activate commands per rank (pJ) (Joule)
system.mem_ctrls0.dram.rank0.preEnergy              0                       # Energy for precharge commands per rank (pJ) (Joule)
system.mem_ctrls0.dram.rank0.readEnergy             0                       # Energy for read commands per rank (pJ) (Joule)
system.mem_ctrls0.dram.rank0.writeEnergy            0                       # Energy for write commands per rank (pJ) (Joule)
system.mem_ctrls0.dram.rank0.refreshEnergy 7404048.000000                       # Energy for refresh commands per rank (pJ) (Joule)
system.mem_ctrls0.dram.rank0.actBackEnergy      1346112                       # Energy for active background per rank (pJ) (Joule)
system.mem_ctrls0.dram.rank0.preBackEnergy     37266624                       # Energy for precharge background per rank (pJ) (Joule)
system.mem_ctrls0.dram.rank0.actPowerDownEnergy            0                       # Energy for active power-down per rank (pJ) (Joule)
system.mem_ctrls0.dram.rank0.prePowerDownEnergy            0                       # Energy for precharge power-down per rank (pJ) (Joule)
system.mem_ctrls0.dram.rank0.selfRefreshEnergy            0                       # Energy for self refresh per rank (pJ) (Joule)
system.mem_ctrls0.dram.rank0.totalEnergy     46016784                       # Total energy per rank (pJ) (Joule)
system.mem_ctrls0.dram.rank0.averagePower   460.165539                       # Core power per rank (mW) (Watt)
system.mem_ctrls0.dram.rank0.totalIdleTime            0                       # Total Idle time Per DRAM Rank (Tick)
system.mem_ctrls0.dram.rank0.pwrStateTime::IDLE       193761                       # Time in different power states (Tick)
system.mem_ctrls0.dram.rank0.pwrStateTime::REF         6240                       # Time in different power states (Tick)
system.mem_ctrls0.dram.rank0.pwrStateTime::SREF            0                       # Time in different power states (Tick)
system.mem_ctrls0.dram.rank0.pwrStateTime::PRE_PDN            0                       # Time in different power states (Tick)
system.mem_ctrls0.dram.rank0.pwrStateTime::ACT            0                       # Time in different power states (Tick)
system.mem_ctrls0.dram.rank0.pwrStateTime::ACT_PDN            0                       # Time in different power states (Tick)
system.mem_ctrls0.dram.rank1.actEnergy              0                       # Energy for activate commands per rank (pJ) (Joule)
system.mem_ctrls0.dram.rank1.preEnergy              0                       # Energy for precharge commands per rank (pJ) (Joule)
system.mem_ctrls0.dram.rank1.readEnergy             0                       # Energy for read commands per rank (pJ) (Joule)
system.mem_ctrls0.dram.rank1.writeEnergy            0                       # Energy for write commands per rank (pJ) (Joule)
system.mem_ctrls0.dram.rank1.refreshEnergy 7404048.000000                       # Energy for refresh commands per rank (pJ) (Joule)
system.mem_ctrls0.dram.rank1.actBackEnergy      1346112                       # Energy for active background per rank (pJ) (Joule)
system.mem_ctrls0.dram.rank1.preBackEnergy     37266624                       # Energy for precharge background per rank (pJ) (Joule)
system.mem_ctrls0.dram.rank1.actPowerDownEnergy            0                       # Energy for active power-down per rank (pJ) (Joule)
system.mem_ctrls0.dram.rank1.prePowerDownEnergy            0                       # Energy for precharge power-down per rank (pJ) (Joule)
system.mem_ctrls0.dram.rank1.selfRefreshEnergy            0                       # Energy for self refresh per rank (pJ) (Joule)
system.mem_ctrls0.dram.rank1.totalEnergy     46016784                       # Total energy per rank (pJ) (Joule)
system.mem_ctrls0.dram.rank1.averagePower   460.165539                       # Core power per rank (mW) (Watt)
system.mem_ctrls0.dram.rank1.totalIdleTime            0                       # Total Idle time Per DRAM Rank (Tick)
system.mem_ctrls0.dram.rank1.pwrStateTime::IDLE       193761                       # Time in different power states (Tick)
system.mem_ctrls0.dram.rank1.pwrStateTime::REF         6240                       # Time in different power states (Tick)
system.mem_ctrls0.dram.rank1.pwrStateTime::SREF            0                       # Time in different power states (Tick)
system.mem_ctrls0.dram.rank1.pwrStateTime::PRE_PDN            0                       # Time in different power states (Tick)
system.mem_ctrls0.dram.rank1.pwrStateTime::ACT            0                       # Time in different power states (Tick)
system.mem_ctrls0.dram.rank1.pwrStateTime::ACT_PDN            0                       # Time in different power states (Tick)
system.mem_ctrls0.power_state.pwrStateResidencyTicks::UNDEFINED       200001                       # Cumulative time (in ticks) in various power states (Tick)
system.mem_ctrls1.priorityMinLatency     0.000000000000                       # per QoS priority minimum request to response latency (Second)
system.mem_ctrls1.priorityMaxLatency     0.000000000000                       # per QoS priority maximum request to response latency (Second)
system.mem_ctrls1.numReadWriteTurnArounds            0                       # Number of turnarounds from READ to WRITE (Count)
system.mem_ctrls1.numWriteReadTurnArounds            0                       # Number of turnarounds from WRITE to READ (Count)
system.mem_ctrls1.numStayReadState                 24                       # Number of times bus staying in READ state (Count)
system.mem_ctrls1.numStayWriteState                 0                       # Number of times bus staying in WRITE state (Count)
system.mem_ctrls1.readReqs                          0                       # Number of read requests accepted (Count)
system.mem_ctrls1.writeReqs                         0                       # Number of write requests accepted (Count)
system.mem_ctrls1.readBursts                        0                       # Number of controller read bursts, including those serviced by the write queue (Count)
system.mem_ctrls1.writeBursts                       0                       # Number of controller write bursts, including those merged in the write queue (Count)
system.mem_ctrls1.servicedByWrQ                     0                       # Number of controller read bursts serviced by the write queue (Count)
system.mem_ctrls1.mergedWrBursts                    0                       # Number of controller write bursts merged with an existing one (Count)
system.mem_ctrls1.neitherReadNorWriteReqs            0                       # Number of requests that are neither read nor write (Count)
system.mem_ctrls1.avgRdQLen                      0.00                       # Average read queue length when enqueuing ((Count/Tick))
system.mem_ctrls1.avgWrQLen                      0.00                       # Average write queue length when enqueuing ((Count/Tick))
system.mem_ctrls1.numRdRetry                        0                       # Number of times read queue was full causing retry (Count)
system.mem_ctrls1.numWrRetry                        0                       # Number of times write queue was full causing retry (Count)
system.mem_ctrls1.readPktSize::0                    0                       # Read request sizes (log2) (Count)
system.mem_ctrls1.readPktSize::1                    0                       # Read request sizes (log2) (Count)
system.mem_ctrls1.readPktSize::2                    0                       # Read request sizes (log2) (Count)
system.mem_ctrls1.readPktSize::3                    0                       # Read request sizes (log2) (Count)
system.mem_ctrls1.readPktSize::4                    0                       # Read request sizes (log2) (Count)
system.mem_ctrls1.readPktSize::5                    0                       # Read request sizes (log2) (Count)
system.mem_ctrls1.readPktSize::6                    0                       # Read request sizes (log2) (Count)
system.mem_ctrls1.writePktSize::0                   0                       # Write request sizes (log2) (Count)
system.mem_ctrls1.writePktSize::1                   0                       # Write request sizes (log2) (Count)
system.mem_ctrls1.writePktSize::2                   0                       # Write request sizes (log2) (Count)
system.mem_ctrls1.writePktSize::3                   0                       # Write request sizes (log2) (Count)
system.mem_ctrls1.writePktSize::4                   0                       # Write request sizes (log2) (Count)
system.mem_ctrls1.writePktSize::5                   0                       # Write request sizes (log2) (Count)
system.mem_ctrls1.writePktSize::6                   0                       # Write request sizes (log2) (Count)
system.mem_ctrls1.rdQLenPdf::0                      0                       # What read queue length does an incoming req see (Count)
system.mem_ctrls1.rdQLenPdf::1                      0                       # What read queue length does an incoming req see (Count)
system.mem_ctrls1.rdQLenPdf::2                      0                       # What read queue length does an incoming req see (Count)
system.mem_ctrls1.rdQLenPdf::3                      0                       # What read queue length does an incoming req see (Count)
system.mem_ctrls1.rdQLenPdf::4                      0                       # What read queue length does an incoming req see (Count)
system.mem_ctrls1.rdQLenPdf::5                      0                       # What read queue length does an incoming req see (Count)
system.mem_ctrls1.rdQLenPdf::6                      0                       # What read queue length does an incoming req see (Count)
system.mem_ctrls1.rdQLenPdf::7                      0                       # What read queue length does an incoming req see (Count)
system.mem_ctrls1.rdQLenPdf::8                      0                       # What read queue length does an incoming req see (Count)
system.mem_ctrls1.rdQLenPdf::9                      0                       # What read queue length does an incoming req see (Count)
system.mem_ctrls1.rdQLenPdf::10                     0                       # What read queue length does an incoming req see (Count)
system.mem_ctrls1.rdQLenPdf::11                     0                       # What read queue length does an incoming req see (Count)
system.mem_ctrls1.rdQLenPdf::12                     0                       # What read queue length does an incoming req see (Count)
system.mem_ctrls1.rdQLenPdf::13                     0                       # What read queue length does an incoming req see (Count)
system.mem_ctrls1.rdQLenPdf::14                     0                       # What read queue length does an incoming req see (Count)
system.mem_ctrls1.rdQLenPdf::15                     0                       # What read queue length does an incoming req see (Count)
system.mem_ctrls1.rdQLenPdf::16                     0                       # What read queue length does an incoming req see (Count)
system.mem_ctrls1.rdQLenPdf::17                     0                       # What read queue length does an incoming req see (Count)
system.mem_ctrls1.rdQLenPdf::18                     0                       # What read queue length does an incoming req see (Count)
system.mem_ctrls1.rdQLenPdf::19                     0                       # What read queue length does an incoming req see (Count)
system.mem_ctrls1.rdQLenPdf::20                     0                       # What read queue length does an incoming req see (Count)
system.mem_ctrls1.rdQLenPdf::21                     0                       # What read queue length does an incoming req see (Count)
system.mem_ctrls1.rdQLenPdf::22                     0                       # What read queue length does an incoming req see (Count)
system.mem_ctrls1.rdQLenPdf::23                     0                       # What read queue length does an incoming req see (Count)
system.mem_ctrls1.rdQLenPdf::24                     0                       # What read queue length does an incoming req see (Count)
system.mem_ctrls1.rdQLenPdf::25                     0                       # What read queue length does an incoming req see (Count)
system.mem_ctrls1.rdQLenPdf::26                     0                       # What read queue length does an incoming req see (Count)
system.mem_ctrls1.rdQLenPdf::27                     0                       # What read queue length does an incoming req see (Count)
system.mem_ctrls1.rdQLenPdf::28                     0                       # What read queue length does an incoming req see (Count)
system.mem_ctrls1.rdQLenPdf::29                     0                       # What read queue length does an incoming req see (Count)
system.mem_ctrls1.rdQLenPdf::30                     0                       # What read queue length does an incoming req see (Count)
system.mem_ctrls1.rdQLenPdf::31                     0                       # What read queue length does an incoming req see (Count)
system.mem_ctrls1.wrQLenPdf::0                      0                       # What write queue length does an incoming req see (Count)
system.mem_ctrls1.wrQLenPdf::1                      0                       # What write queue length does an incoming req see (Count)
system.mem_ctrls1.wrQLenPdf::2                      0                       # What write queue length does an incoming req see (Count)
system.mem_ctrls1.wrQLenPdf::3                      0                       # What write queue length does an incoming req see (Count)
system.mem_ctrls1.wrQLenPdf::4                      0                       # What write queue length does an incoming req see (Count)
system.mem_ctrls1.wrQLenPdf::5                      0                       # What write queue length does an incoming req see (Count)
system.mem_ctrls1.wrQLenPdf::6                      0                       # What write queue length does an incoming req see (Count)
system.mem_ctrls1.wrQLenPdf::7                      0                       # What write queue length does an incoming req see (Count)
system.mem_ctrls1.wrQLenPdf::8                      0                       # What write queue length does an incoming req see (Count)
system.mem_ctrls1.wrQLenPdf::9                      0                       # What write queue length does an incoming req see (Count)
system.mem_ctrls1.wrQLenPdf::10                     0                       # What write queue length does an incoming req see (Count)
system.mem_ctrls1.wrQLenPdf::11                     0                       # What write queue length does an incoming req see (Count)
system.mem_ctrls1.wrQLenPdf::12                     0                       # What write queue length does an incoming req see (Count)
system.mem_ctrls1.wrQLenPdf::13                     0                       # What write queue length does an incoming req see (Count)
system.mem_ctrls1.wrQLenPdf::14                     0                       # What write queue length does an incoming req see (Count)
system.mem_ctrls1.wrQLenPdf::15                     0                       # What write queue length does an incoming req see (Count)
system.mem_ctrls1.wrQLenPdf::16                     0                       # What write queue length does an incoming req see (Count)
system.mem_ctrls1.wrQLenPdf::17                     0                       # What write queue length does an incoming req see (Count)
system.mem_ctrls1.wrQLenPdf::18                     0                       # What write queue length does an incoming req see (Count)
system.mem_ctrls1.wrQLenPdf::19                     0                       # What write queue length does an incoming req see (Count)
system.mem_ctrls1.wrQLenPdf::20                     0                       # What write queue length does an incoming req see (Count)
system.mem_ctrls1.wrQLenPdf::21                     0                       # What write queue length does an incoming req see (Count)
system.mem_ctrls1.wrQLenPdf::22                     0                       # What write queue length does an incoming req see (Count)
system.mem_ctrls1.wrQLenPdf::23                     0                       # What write queue length does an incoming req see (Count)
system.mem_ctrls1.wrQLenPdf::24                     0                       # What write queue length does an incoming req see (Count)
system.mem_ctrls1.wrQLenPdf::25                     0                       # What write queue length does an incoming req see (Count)
system.mem_ctrls1.wrQLenPdf::26                     0                       # What write queue length does an incoming req see (Count)
system.mem_ctrls1.wrQLenPdf::27                     0                       # What write queue length does an incoming req see (Count)
system.mem_ctrls1.wrQLenPdf::28                     0                       # What write queue length does an incoming req see (Count)
system.mem_ctrls1.wrQLenPdf::29                     0                       # What write queue length does an incoming req see (Count)
system.mem_ctrls1.wrQLenPdf::30                     0                       # What write queue length does an incoming req see (Count)
system.mem_ctrls1.wrQLenPdf::31                     0                       # What write queue length does an incoming req see (Count)
system.mem_ctrls1.wrQLenPdf::32                     0                       # What write queue length does an incoming req see (Count)
system.mem_ctrls1.wrQLenPdf::33                     0                       # What write queue length does an incoming req see (Count)
system.mem_ctrls1.wrQLenPdf::34                     0                       # What write queue length does an incoming req see (Count)
system.mem_ctrls1.wrQLenPdf::35                     0                       # What write queue length does an incoming req see (Count)
system.mem_ctrls1.wrQLenPdf::36                     0                       # What write queue length does an incoming req see (Count)
system.mem_ctrls1.wrQLenPdf::37                     0                       # What write queue length does an incoming req see (Count)
system.mem_ctrls1.wrQLenPdf::38                     0                       # What write queue length does an incoming req see (Count)
system.mem_ctrls1.wrQLenPdf::39                     0                       # What write queue length does an incoming req see (Count)
system.mem_ctrls1.wrQLenPdf::40                     0                       # What write queue length does an incoming req see (Count)
system.mem_ctrls1.wrQLenPdf::41                     0                       # What write queue length does an incoming req see (Count)
system.mem_ctrls1.wrQLenPdf::42                     0                       # What write queue length does an incoming req see (Count)
system.mem_ctrls1.wrQLenPdf::43                     0                       # What write queue length does an incoming req see (Count)
system.mem_ctrls1.wrQLenPdf::44                     0                       # What write queue length does an incoming req see (Count)
system.mem_ctrls1.wrQLenPdf::45                     0                       # What write queue length does an incoming req see (Count)
system.mem_ctrls1.wrQLenPdf::46                     0                       # What write queue length does an incoming req see (Count)
system.mem_ctrls1.wrQLenPdf::47                     0                       # What write queue length does an incoming req see (Count)
system.mem_ctrls1.wrQLenPdf::48                     0                       # What write queue length does an incoming req see (Count)
system.mem_ctrls1.wrQLenPdf::49                     0                       # What write queue length does an incoming req see (Count)
system.mem_ctrls1.wrQLenPdf::50                     0                       # What write queue length does an incoming req see (Count)
system.mem_ctrls1.wrQLenPdf::51                     0                       # What write queue length does an incoming req see (Count)
system.mem_ctrls1.wrQLenPdf::52                     0                       # What write queue length does an incoming req see (Count)
system.mem_ctrls1.wrQLenPdf::53                     0                       # What write queue length does an incoming req see (Count)
system.mem_ctrls1.wrQLenPdf::54                     0                       # What write queue length does an incoming req see (Count)
system.mem_ctrls1.wrQLenPdf::55                     0                       # What write queue length does an incoming req see (Count)
system.mem_ctrls1.wrQLenPdf::56                     0                       # What write queue length does an incoming req see (Count)
system.mem_ctrls1.wrQLenPdf::57                     0                       # What write queue length does an incoming req see (Count)
system.mem_ctrls1.wrQLenPdf::58                     0                       # What write queue length does an incoming req see (Count)
system.mem_ctrls1.wrQLenPdf::59                     0                       # What write queue length does an incoming req see (Count)
system.mem_ctrls1.wrQLenPdf::60                     0                       # What write queue length does an incoming req see (Count)
system.mem_ctrls1.wrQLenPdf::61                     0                       # What write queue length does an incoming req see (Count)
system.mem_ctrls1.wrQLenPdf::62                     0                       # What write queue length does an incoming req see (Count)
system.mem_ctrls1.wrQLenPdf::63                     0                       # What write queue length does an incoming req see (Count)
system.mem_ctrls1.bytesReadWrQ                      0                       # Total number of bytes read from write queue (Byte)
system.mem_ctrls1.bytesReadSys                      0                       # Total read bytes from the system interface side (Byte)
system.mem_ctrls1.bytesWrittenSys                   0                       # Total written bytes from the system interface side (Byte)
system.mem_ctrls1.avgRdBWSys               0.00000000                       # Average system read bandwidth in Byte/s ((Byte/Second))
system.mem_ctrls1.avgWrBWSys               0.00000000                       # Average system write bandwidth in Byte/s ((Byte/Second))
system.mem_ctrls1.totGap                            0                       # Total gap between requests (Tick)
system.mem_ctrls1.avgGap                          nan                       # Average gap between requests ((Tick/Count))
system.mem_ctrls1.dram.readBursts                   0                       # Number of DRAM read bursts (Count)
system.mem_ctrls1.dram.writeBursts                  0                       # Number of DRAM write bursts (Count)
system.mem_ctrls1.dram.perBankRdBursts::0            0                       # Per bank write bursts (Count)
system.mem_ctrls1.dram.perBankRdBursts::1            0                       # Per bank write bursts (Count)
system.mem_ctrls1.dram.perBankRdBursts::2            0                       # Per bank write bursts (Count)
system.mem_ctrls1.dram.perBankRdBursts::3            0                       # Per bank write bursts (Count)
system.mem_ctrls1.dram.perBankRdBursts::4            0                       # Per bank write bursts (Count)
system.mem_ctrls1.dram.perBankRdBursts::5            0                       # Per bank write bursts (Count)
system.mem_ctrls1.dram.perBankRdBursts::6            0                       # Per bank write bursts (Count)
system.mem_ctrls1.dram.perBankRdBursts::7            0                       # Per bank write bursts (Count)
system.mem_ctrls1.dram.perBankRdBursts::8            0                       # Per bank write bursts (Count)
system.mem_ctrls1.dram.perBankRdBursts::9            0                       # Per bank write bursts (Count)
system.mem_ctrls1.dram.perBankRdBursts::10            0                       # Per bank write bursts (Count)
system.mem_ctrls1.dram.perBankRdBursts::11            0                       # Per bank write bursts (Count)
system.mem_ctrls1.dram.perBankRdBursts::12            0                       # Per bank write bursts (Count)
system.mem_ctrls1.dram.perBankRdBursts::13            0                       # Per bank write bursts (Count)
system.mem_ctrls1.dram.perBankRdBursts::14            0                       # Per bank write bursts (Count)
system.mem_ctrls1.dram.perBankRdBursts::15            0                       # Per bank write bursts (Count)
system.mem_ctrls1.dram.perBankWrBursts::0            0                       # Per bank write bursts (Count)
system.mem_ctrls1.dram.perBankWrBursts::1            0                       # Per bank write bursts (Count)
system.mem_ctrls1.dram.perBankWrBursts::2            0                       # Per bank write bursts (Count)
system.mem_ctrls1.dram.perBankWrBursts::3            0                       # Per bank write bursts (Count)
system.mem_ctrls1.dram.perBankWrBursts::4            0                       # Per bank write bursts (Count)
system.mem_ctrls1.dram.perBankWrBursts::5            0                       # Per bank write bursts (Count)
system.mem_ctrls1.dram.perBankWrBursts::6            0                       # Per bank write bursts (Count)
system.mem_ctrls1.dram.perBankWrBursts::7            0                       # Per bank write bursts (Count)
system.mem_ctrls1.dram.perBankWrBursts::8            0                       # Per bank write bursts (Count)
system.mem_ctrls1.dram.perBankWrBursts::9            0                       # Per bank write bursts (Count)
system.mem_ctrls1.dram.perBankWrBursts::10            0                       # Per bank write bursts (Count)
system.mem_ctrls1.dram.perBankWrBursts::11            0                       # Per bank write bursts (Count)
system.mem_ctrls1.dram.perBankWrBursts::12            0                       # Per bank write bursts (Count)
system.mem_ctrls1.dram.perBankWrBursts::13            0                       # Per bank write bursts (Count)
system.mem_ctrls1.dram.perBankWrBursts::14            0                       # Per bank write bursts (Count)
system.mem_ctrls1.dram.perBankWrBursts::15            0                       # Per bank write bursts (Count)
system.mem_ctrls1.dram.totQLat                      0                       # Total ticks spent queuing (Tick)
system.mem_ctrls1.dram.totBusLat                    0                       # Total ticks spent in databus transfers (Tick)
system.mem_ctrls1.dram.totMemAccLat                 0                       # Total ticks spent from burst creation until serviced by the DRAM (Tick)
system.mem_ctrls1.dram.avgQLat                    nan                       # Average queueing delay per DRAM burst ((Tick/Count))
system.mem_ctrls1.dram.avgBusLat                  nan                       # Average bus latency per DRAM burst ((Tick/Count))
system.mem_ctrls1.dram.avgMemAccLat               nan                       # Average memory access latency per DRAM burst ((Tick/Count))
system.mem_ctrls1.dram.readRowHits                  0                       # Number of row buffer hits during reads (Count)
system.mem_ctrls1.dram.writeRowHits                 0                       # Number of row buffer hits during writes (Count)
system.mem_ctrls1.dram.readRowHitRate             nan                       # Row buffer hit rate for reads (Ratio)
system.mem_ctrls1.dram.writeRowHitRate            nan                       # Row buffer hit rate for writes (Ratio)
system.mem_ctrls1.dram.bytesRead                    0                       # Total number of bytes read from DRAM (Byte)
system.mem_ctrls1.dram.bytesWritten                 0                       # Total number of bytes written to DRAM (Byte)
system.mem_ctrls1.dram.avgRdBW                      0                       # Average DRAM read bandwidth in MiBytes/s ((Byte/Second))
system.mem_ctrls1.dram.avgWrBW                      0                       # Average DRAM write bandwidth in MiBytes/s ((Byte/Second))
system.mem_ctrls1.dram.peakBW                12800.00                       # Theoretical peak bandwidth in MiByte/s ((Byte/Second))
system.mem_ctrls1.dram.busUtil                   0.00                       # Data bus utilization in percentage (Ratio)
system.mem_ctrls1.dram.busUtilRead               0.00                       # Data bus utilization in percentage for reads (Ratio)
system.mem_ctrls1.dram.busUtilWrite              0.00                       # Data bus utilization in percentage for writes (Ratio)
system.mem_ctrls1.dram.pageHitRate                nan                       # Row buffer hit rate, read and write combined (Ratio)
system.mem_ctrls1.dram.power_state.pwrStateResidencyTicks::UNDEFINED       200001                       # Cumulative time (in ticks) in various power states (Tick)
system.mem_ctrls1.dram.rank0.actEnergy              0                       # Energy for activate commands per rank (pJ) (Joule)
system.mem_ctrls1.dram.rank0.preEnergy              0                       # Energy for precharge commands per rank (pJ) (Joule)
system.mem_ctrls1.dram.rank0.readEnergy             0                       # Energy for read commands per rank (pJ) (Joule)
system.mem_ctrls1.dram.rank0.writeEnergy            0                       # Energy for write commands per rank (pJ) (Joule)
system.mem_ctrls1.dram.rank0.refreshEnergy 7404048.000000                       # Energy for refresh commands per rank (pJ) (Joule)
system.mem_ctrls1.dram.rank0.actBackEnergy      1346112                       # Energy for active background per rank (pJ) (Joule)
system.mem_ctrls1.dram.rank0.preBackEnergy     37266624                       # Energy for precharge background per rank (pJ) (Joule)
system.mem_ctrls1.dram.rank0.actPowerDownEnergy            0                       # Energy for active power-down per rank (pJ) (Joule)
system.mem_ctrls1.dram.rank0.prePowerDownEnergy            0                       # Energy for precharge power-down per rank (pJ) (Joule)
system.mem_ctrls1.dram.rank0.selfRefreshEnergy            0                       # Energy for self refresh per rank (pJ) (Joule)
system.mem_ctrls1.dram.rank0.totalEnergy     46016784                       # Total energy per rank (pJ) (Joule)
system.mem_ctrls1.dram.rank0.averagePower   460.165539                       # Core power per rank (mW) (Watt)
system.mem_ctrls1.dram.rank0.totalIdleTime            0                       # Total Idle time Per DRAM Rank (Tick)
system.mem_ctrls1.dram.rank0.pwrStateTime::IDLE       193761                       # Time in different power states (Tick)
system.mem_ctrls1.dram.rank0.pwrStateTime::REF         6240                       # Time in different power states (Tick)
system.mem_ctrls1.dram.rank0.pwrStateTime::SREF            0                       # Time in different power states (Tick)
system.mem_ctrls1.dram.rank0.pwrStateTime::PRE_PDN            0                       # Time in different power states (Tick)
system.mem_ctrls1.dram.rank0.pwrStateTime::ACT            0                       # Time in different power states (Tick)
system.mem_ctrls1.dram.rank0.pwrStateTime::ACT_PDN            0                       # Time in different power states (Tick)
system.mem_ctrls1.dram.rank1.actEnergy              0                       # Energy for activate commands per rank (pJ) (Joule)
system.mem_ctrls1.dram.rank1.preEnergy              0                       # Energy for precharge commands per rank (pJ) (Joule)
system.mem_ctrls1.dram.rank1.readEnergy             0                       # Energy for read commands per rank (pJ) (Joule)
system.mem_ctrls1.dram.rank1.writeEnergy            0                       # Energy for write commands per rank (pJ) (Joule)
system.mem_ctrls1.dram.rank1.refreshEnergy 7404048.000000                       # Energy for refresh commands per rank (pJ) (Joule)
system.mem_ctrls1.dram.rank1.actBackEnergy      1346112                       # Energy for active background per rank (pJ) (Joule)
system.mem_ctrls1.dram.rank1.preBackEnergy     37266624                       # Energy for precharge background per rank (pJ) (Joule)
system.mem_ctrls1.dram.rank1.actPowerDownEnergy            0                       # Energy for active power-down per rank (pJ) (Joule)
system.mem_ctrls1.dram.rank1.prePowerDownEnergy            0                       # Energy for precharge power-down per rank (pJ) (Joule)
system.mem_ctrls1.dram.rank1.selfRefreshEnergy            0                       # Energy for self refresh per rank (pJ) (Joule)
system.mem_ctrls1.dram.rank1.totalEnergy     46016784                       # Total energy per rank (pJ) (Joule)
system.mem_ctrls1.dram.rank1.averagePower   460.165539                       # Core power per rank (mW) (Watt)
system.mem_ctrls1.dram.rank1.totalIdleTime            0                       # Total Idle time Per DRAM Rank (Tick)
system.mem_ctrls1.dram.rank1.pwrStateTime::IDLE       193761                       # Time in different power states (Tick)
system.mem_ctrls1.dram.rank1.pwrStateTime::REF         6240                       # Time in different power states (Tick)
system.mem_ctrls1.dram.rank1.pwrStateTime::SREF            0                       # Time in different power states (Tick)
system.mem_ctrls1.dram.rank1.pwrStateTime::PRE_PDN            0                       # Time in different power states (Tick)
system.mem_ctrls1.dram.rank1.pwrStateTime::ACT            0                       # Time in different power states (Tick)
system.mem_ctrls1.dram.rank1.pwrStateTime::ACT_PDN            0                       # Time in different power states (Tick)
system.mem_ctrls1.power_state.pwrStateResidencyTicks::UNDEFINED       200001                       # Cumulative time (in ticks) in various power states (Tick)
system.mem_ctrls2.priorityMinLatency     0.000000000000                       # per QoS priority minimum request to response latency (Second)
system.mem_ctrls2.priorityMaxLatency     0.000000000000                       # per QoS priority maximum request to response latency (Second)
system.mem_ctrls2.numReadWriteTurnArounds            0                       # Number of turnarounds from READ to WRITE (Count)
system.mem_ctrls2.numWriteReadTurnArounds            0                       # Number of turnarounds from WRITE to READ (Count)
system.mem_ctrls2.numStayReadState                 24                       # Number of times bus staying in READ state (Count)
system.mem_ctrls2.numStayWriteState                 0                       # Number of times bus staying in WRITE state (Count)
system.mem_ctrls2.readReqs                          0                       # Number of read requests accepted (Count)
system.mem_ctrls2.writeReqs                         0                       # Number of write requests accepted (Count)
system.mem_ctrls2.readBursts                        0                       # Number of controller read bursts, including those serviced by the write queue (Count)
system.mem_ctrls2.writeBursts                       0                       # Number of controller write bursts, including those merged in the write queue (Count)
system.mem_ctrls2.servicedByWrQ                     0                       # Number of controller read bursts serviced by the write queue (Count)
system.mem_ctrls2.mergedWrBursts                    0                       # Number of controller write bursts merged with an existing one (Count)
system.mem_ctrls2.neitherReadNorWriteReqs            0                       # Number of requests that are neither read nor write (Count)
system.mem_ctrls2.avgRdQLen                      0.00                       # Average read queue length when enqueuing ((Count/Tick))
system.mem_ctrls2.avgWrQLen                      0.00                       # Average write queue length when enqueuing ((Count/Tick))
system.mem_ctrls2.numRdRetry                        0                       # Number of times read queue was full causing retry (Count)
system.mem_ctrls2.numWrRetry                        0                       # Number of times write queue was full causing retry (Count)
system.mem_ctrls2.readPktSize::0                    0                       # Read request sizes (log2) (Count)
system.mem_ctrls2.readPktSize::1                    0                       # Read request sizes (log2) (Count)
system.mem_ctrls2.readPktSize::2                    0                       # Read request sizes (log2) (Count)
system.mem_ctrls2.readPktSize::3                    0                       # Read request sizes (log2) (Count)
system.mem_ctrls2.readPktSize::4                    0                       # Read request sizes (log2) (Count)
system.mem_ctrls2.readPktSize::5                    0                       # Read request sizes (log2) (Count)
system.mem_ctrls2.readPktSize::6                    0                       # Read request sizes (log2) (Count)
system.mem_ctrls2.writePktSize::0                   0                       # Write request sizes (log2) (Count)
system.mem_ctrls2.writePktSize::1                   0                       # Write request sizes (log2) (Count)
system.mem_ctrls2.writePktSize::2                   0                       # Write request sizes (log2) (Count)
system.mem_ctrls2.writePktSize::3                   0                       # Write request sizes (log2) (Count)
system.mem_ctrls2.writePktSize::4                   0                       # Write request sizes (log2) (Count)
system.mem_ctrls2.writePktSize::5                   0                       # Write request sizes (log2) (Count)
system.mem_ctrls2.writePktSize::6                   0                       # Write request sizes (log2) (Count)
system.mem_ctrls2.rdQLenPdf::0                      0                       # What read queue length does an incoming req see (Count)
system.mem_ctrls2.rdQLenPdf::1                      0                       # What read queue length does an incoming req see (Count)
system.mem_ctrls2.rdQLenPdf::2                      0                       # What read queue length does an incoming req see (Count)
system.mem_ctrls2.rdQLenPdf::3                      0                       # What read queue length does an incoming req see (Count)
system.mem_ctrls2.rdQLenPdf::4                      0                       # What read queue length does an incoming req see (Count)
system.mem_ctrls2.rdQLenPdf::5                      0                       # What read queue length does an incoming req see (Count)
system.mem_ctrls2.rdQLenPdf::6                      0                       # What read queue length does an incoming req see (Count)
system.mem_ctrls2.rdQLenPdf::7                      0                       # What read queue length does an incoming req see (Count)
system.mem_ctrls2.rdQLenPdf::8                      0                       # What read queue length does an incoming req see (Count)
system.mem_ctrls2.rdQLenPdf::9                      0                       # What read queue length does an incoming req see (Count)
system.mem_ctrls2.rdQLenPdf::10                     0                       # What read queue length does an incoming req see (Count)
system.mem_ctrls2.rdQLenPdf::11                     0                       # What read queue length does an incoming req see (Count)
system.mem_ctrls2.rdQLenPdf::12                     0                       # What read queue length does an incoming req see (Count)
system.mem_ctrls2.rdQLenPdf::13                     0                       # What read queue length does an incoming req see (Count)
system.mem_ctrls2.rdQLenPdf::14                     0                       # What read queue length does an incoming req see (Count)
system.mem_ctrls2.rdQLenPdf::15                     0                       # What read queue length does an incoming req see (Count)
system.mem_ctrls2.rdQLenPdf::16                     0                       # What read queue length does an incoming req see (Count)
system.mem_ctrls2.rdQLenPdf::17                     0                       # What read queue length does an incoming req see (Count)
system.mem_ctrls2.rdQLenPdf::18                     0                       # What read queue length does an incoming req see (Count)
system.mem_ctrls2.rdQLenPdf::19                     0                       # What read queue length does an incoming req see (Count)
system.mem_ctrls2.rdQLenPdf::20                     0                       # What read queue length does an incoming req see (Count)
system.mem_ctrls2.rdQLenPdf::21                     0                       # What read queue length does an incoming req see (Count)
system.mem_ctrls2.rdQLenPdf::22                     0                       # What read queue length does an incoming req see (Count)
system.mem_ctrls2.rdQLenPdf::23                     0                       # What read queue length does an incoming req see (Count)
system.mem_ctrls2.rdQLenPdf::24                     0                       # What read queue length does an incoming req see (Count)
system.mem_ctrls2.rdQLenPdf::25                     0                       # What read queue length does an incoming req see (Count)
system.mem_ctrls2.rdQLenPdf::26                     0                       # What read queue length does an incoming req see (Count)
system.mem_ctrls2.rdQLenPdf::27                     0                       # What read queue length does an incoming req see (Count)
system.mem_ctrls2.rdQLenPdf::28                     0                       # What read queue length does an incoming req see (Count)
system.mem_ctrls2.rdQLenPdf::29                     0                       # What read queue length does an incoming req see (Count)
system.mem_ctrls2.rdQLenPdf::30                     0                       # What read queue length does an incoming req see (Count)
system.mem_ctrls2.rdQLenPdf::31                     0                       # What read queue length does an incoming req see (Count)
system.mem_ctrls2.wrQLenPdf::0                      0                       # What write queue length does an incoming req see (Count)
system.mem_ctrls2.wrQLenPdf::1                      0                       # What write queue length does an incoming req see (Count)
system.mem_ctrls2.wrQLenPdf::2                      0                       # What write queue length does an incoming req see (Count)
system.mem_ctrls2.wrQLenPdf::3                      0                       # What write queue length does an incoming req see (Count)
system.mem_ctrls2.wrQLenPdf::4                      0                       # What write queue length does an incoming req see (Count)
system.mem_ctrls2.wrQLenPdf::5                      0                       # What write queue length does an incoming req see (Count)
system.mem_ctrls2.wrQLenPdf::6                      0                       # What write queue length does an incoming req see (Count)
system.mem_ctrls2.wrQLenPdf::7                      0                       # What write queue length does an incoming req see (Count)
system.mem_ctrls2.wrQLenPdf::8                      0                       # What write queue length does an incoming req see (Count)
system.mem_ctrls2.wrQLenPdf::9                      0                       # What write queue length does an incoming req see (Count)
system.mem_ctrls2.wrQLenPdf::10                     0                       # What write queue length does an incoming req see (Count)
system.mem_ctrls2.wrQLenPdf::11                     0                       # What write queue length does an incoming req see (Count)
system.mem_ctrls2.wrQLenPdf::12                     0                       # What write queue length does an incoming req see (Count)
system.mem_ctrls2.wrQLenPdf::13                     0                       # What write queue length does an incoming req see (Count)
system.mem_ctrls2.wrQLenPdf::14                     0                       # What write queue length does an incoming req see (Count)
system.mem_ctrls2.wrQLenPdf::15                     0                       # What write queue length does an incoming req see (Count)
system.mem_ctrls2.wrQLenPdf::16                     0                       # What write queue length does an incoming req see (Count)
system.mem_ctrls2.wrQLenPdf::17                     0                       # What write queue length does an incoming req see (Count)
system.mem_ctrls2.wrQLenPdf::18                     0                       # What write queue length does an incoming req see (Count)
system.mem_ctrls2.wrQLenPdf::19                     0                       # What write queue length does an incoming req see (Count)
system.mem_ctrls2.wrQLenPdf::20                     0                       # What write queue length does an incoming req see (Count)
system.mem_ctrls2.wrQLenPdf::21                     0                       # What write queue length does an incoming req see (Count)
system.mem_ctrls2.wrQLenPdf::22                     0                       # What write queue length does an incoming req see (Count)
system.mem_ctrls2.wrQLenPdf::23                     0                       # What write queue length does an incoming req see (Count)
system.mem_ctrls2.wrQLenPdf::24                     0                       # What write queue length does an incoming req see (Count)
system.mem_ctrls2.wrQLenPdf::25                     0                       # What write queue length does an incoming req see (Count)
system.mem_ctrls2.wrQLenPdf::26                     0                       # What write queue length does an incoming req see (Count)
system.mem_ctrls2.wrQLenPdf::27                     0                       # What write queue length does an incoming req see (Count)
system.mem_ctrls2.wrQLenPdf::28                     0                       # What write queue length does an incoming req see (Count)
system.mem_ctrls2.wrQLenPdf::29                     0                       # What write queue length does an incoming req see (Count)
system.mem_ctrls2.wrQLenPdf::30                     0                       # What write queue length does an incoming req see (Count)
system.mem_ctrls2.wrQLenPdf::31                     0                       # What write queue length does an incoming req see (Count)
system.mem_ctrls2.wrQLenPdf::32                     0                       # What write queue length does an incoming req see (Count)
system.mem_ctrls2.wrQLenPdf::33                     0                       # What write queue length does an incoming req see (Count)
system.mem_ctrls2.wrQLenPdf::34                     0                       # What write queue length does an incoming req see (Count)
system.mem_ctrls2.wrQLenPdf::35                     0                       # What write queue length does an incoming req see (Count)
system.mem_ctrls2.wrQLenPdf::36                     0                       # What write queue length does an incoming req see (Count)
system.mem_ctrls2.wrQLenPdf::37                     0                       # What write queue length does an incoming req see (Count)
system.mem_ctrls2.wrQLenPdf::38                     0                       # What write queue length does an incoming req see (Count)
system.mem_ctrls2.wrQLenPdf::39                     0                       # What write queue length does an incoming req see (Count)
system.mem_ctrls2.wrQLenPdf::40                     0                       # What write queue length does an incoming req see (Count)
system.mem_ctrls2.wrQLenPdf::41                     0                       # What write queue length does an incoming req see (Count)
system.mem_ctrls2.wrQLenPdf::42                     0                       # What write queue length does an incoming req see (Count)
system.mem_ctrls2.wrQLenPdf::43                     0                       # What write queue length does an incoming req see (Count)
system.mem_ctrls2.wrQLenPdf::44                     0                       # What write queue length does an incoming req see (Count)
system.mem_ctrls2.wrQLenPdf::45                     0                       # What write queue length does an incoming req see (Count)
system.mem_ctrls2.wrQLenPdf::46                     0                       # What write queue length does an incoming req see (Count)
system.mem_ctrls2.wrQLenPdf::47                     0                       # What write queue length does an incoming req see (Count)
system.mem_ctrls2.wrQLenPdf::48                     0                       # What write queue length does an incoming req see (Count)
system.mem_ctrls2.wrQLenPdf::49                     0                       # What write queue length does an incoming req see (Count)
system.mem_ctrls2.wrQLenPdf::50                     0                       # What write queue length does an incoming req see (Count)
system.mem_ctrls2.wrQLenPdf::51                     0                       # What write queue length does an incoming req see (Count)
system.mem_ctrls2.wrQLenPdf::52                     0                       # What write queue length does an incoming req see (Count)
system.mem_ctrls2.wrQLenPdf::53                     0                       # What write queue length does an incoming req see (Count)
system.mem_ctrls2.wrQLenPdf::54                     0                       # What write queue length does an incoming req see (Count)
system.mem_ctrls2.wrQLenPdf::55                     0                       # What write queue length does an incoming req see (Count)
system.mem_ctrls2.wrQLenPdf::56                     0                       # What write queue length does an incoming req see (Count)
system.mem_ctrls2.wrQLenPdf::57                     0                       # What write queue length does an incoming req see (Count)
system.mem_ctrls2.wrQLenPdf::58                     0                       # What write queue length does an incoming req see (Count)
system.mem_ctrls2.wrQLenPdf::59                     0                       # What write queue length does an incoming req see (Count)
system.mem_ctrls2.wrQLenPdf::60                     0                       # What write queue length does an incoming req see (Count)
system.mem_ctrls2.wrQLenPdf::61                     0                       # What write queue length does an incoming req see (Count)
system.mem_ctrls2.wrQLenPdf::62                     0                       # What write queue length does an incoming req see (Count)
system.mem_ctrls2.wrQLenPdf::63                     0                       # What write queue length does an incoming req see (Count)
system.mem_ctrls2.bytesReadWrQ                      0                       # Total number of bytes read from write queue (Byte)
system.mem_ctrls2.bytesReadSys                      0                       # Total read bytes from the system interface side (Byte)
system.mem_ctrls2.bytesWrittenSys                   0                       # Total written bytes from the system interface side (Byte)
system.mem_ctrls2.avgRdBWSys               0.00000000                       # Average system read bandwidth in Byte/s ((Byte/Second))
system.mem_ctrls2.avgWrBWSys               0.00000000                       # Average system write bandwidth in Byte/s ((Byte/Second))
system.mem_ctrls2.totGap                            0                       # Total gap between requests (Tick)
system.mem_ctrls2.avgGap                          nan                       # Average gap between requests ((Tick/Count))
system.mem_ctrls2.dram.readBursts                   0                       # Number of DRAM read bursts (Count)
system.mem_ctrls2.dram.writeBursts                  0                       # Number of DRAM write bursts (Count)
system.mem_ctrls2.dram.perBankRdBursts::0            0                       # Per bank write bursts (Count)
system.mem_ctrls2.dram.perBankRdBursts::1            0                       # Per bank write bursts (Count)
system.mem_ctrls2.dram.perBankRdBursts::2            0                       # Per bank write bursts (Count)
system.mem_ctrls2.dram.perBankRdBursts::3            0                       # Per bank write bursts (Count)
system.mem_ctrls2.dram.perBankRdBursts::4            0                       # Per bank write bursts (Count)
system.mem_ctrls2.dram.perBankRdBursts::5            0                       # Per bank write bursts (Count)
system.mem_ctrls2.dram.perBankRdBursts::6            0                       # Per bank write bursts (Count)
system.mem_ctrls2.dram.perBankRdBursts::7            0                       # Per bank write bursts (Count)
system.mem_ctrls2.dram.perBankRdBursts::8            0                       # Per bank write bursts (Count)
system.mem_ctrls2.dram.perBankRdBursts::9            0                       # Per bank write bursts (Count)
system.mem_ctrls2.dram.perBankRdBursts::10            0                       # Per bank write bursts (Count)
system.mem_ctrls2.dram.perBankRdBursts::11            0                       # Per bank write bursts (Count)
system.mem_ctrls2.dram.perBankRdBursts::12            0                       # Per bank write bursts (Count)
system.mem_ctrls2.dram.perBankRdBursts::13            0                       # Per bank write bursts (Count)
system.mem_ctrls2.dram.perBankRdBursts::14            0                       # Per bank write bursts (Count)
system.mem_ctrls2.dram.perBankRdBursts::15            0                       # Per bank write bursts (Count)
system.mem_ctrls2.dram.perBankWrBursts::0            0                       # Per bank write bursts (Count)
system.mem_ctrls2.dram.perBankWrBursts::1            0                       # Per bank write bursts (Count)
system.mem_ctrls2.dram.perBankWrBursts::2            0                       # Per bank write bursts (Count)
system.mem_ctrls2.dram.perBankWrBursts::3            0                       # Per bank write bursts (Count)
system.mem_ctrls2.dram.perBankWrBursts::4            0                       # Per bank write bursts (Count)
system.mem_ctrls2.dram.perBankWrBursts::5            0                       # Per bank write bursts (Count)
system.mem_ctrls2.dram.perBankWrBursts::6            0                       # Per bank write bursts (Count)
system.mem_ctrls2.dram.perBankWrBursts::7            0                       # Per bank write bursts (Count)
system.mem_ctrls2.dram.perBankWrBursts::8            0                       # Per bank write bursts (Count)
[...]
system.ruby.network.routers3.percent_links_utilized            0                       (Unspecified)
system.ruby.network.routers3.power_state.pwrStateResidencyTicks::UNDEFINED       200001                       # Cumulative time (in ticks) in various power states (Tick)
system.ruby.network.routers3.throttle00.link_utilization            0                       (Unspecified)
system.ruby.network.routers3.throttle01.link_utilization            0                       (Unspecified)
system.ruby.network.routers4.percent_links_utilized     0.062500                       (Unspecified)
system.ruby.network.routers4.msg_count.Control::0           40                       (Unspecified)
system.ruby.network.routers4.msg_bytes.Control::0          320                       (Unspecified)
system.ruby.network.routers4.msg_count.Request_Control::2           20                       (Unspecified)
system.ruby.network.routers4.msg_bytes.Request_Control::2          160                       (Unspecified)
system.ruby.network.routers4.msg_count.Response_Data::1           40                       (Unspecified)
system.ruby.network.routers4.msg_bytes.Response_Data::1         2880                       (Unspecified)
system.ruby.network.routers4.msg_count.Response_Control::0           10                       (Unspecified)
system.ruby.network.routers4.msg_count.Response_Control::1           50                       (Unspecified)
system.ruby.network.routers4.msg_count.Response_Control::2           20                       (Unspecified)
system.ruby.network.routers4.msg_bytes.Response_Control::0           80                       (Unspecified)
system.ruby.network.routers4.msg_bytes.Response_Control::1          400                       (Unspecified)
system.ruby.network.routers4.msg_bytes.Response_Control::2          160                       (Unspecified)
system.ruby.network.routers4.port_buffers0.m_buf_msgs     0.003195                       # Average number of messages in buffer (Unspecified)
system.ruby.network.routers4.port_buffers0.m_stall_time   111.305632                       # Average number of cycles messages are stalled in this MB (Unspecified)
system.ruby.network.routers4.port_buffers1.m_buf_msgs     0.003615                       # Average number of messages in buffer (Unspecified)
system.ruby.network.routers4.port_buffers1.m_stall_time   111.330177                       # Average number of cycles messages are stalled in this MB (Unspecified)
system.ruby.network.routers4.port_buffers2.m_buf_msgs     0.003515                       # Average number of messages in buffer (Unspecified)
system.ruby.network.routers4.port_buffers2.m_stall_time    90.569139                       # Average number of cycles messages are stalled in this MB (Unspecified)
system.ruby.network.routers4.port_buffers3.m_buf_msgs     0.000655                       # Average number of messages in buffer (Unspecified)
system.ruby.network.routers4.port_buffers3.m_stall_time    38.128284                       # Average number of cycles messages are stalled in this MB (Unspecified)
system.ruby.network.routers4.port_buffers4.m_buf_msgs     0.002005                       # Average number of messages in buffer (Unspecified)
system.ruby.network.routers4.port_buffers4.m_stall_time    31.520435                       # Average number of cycles messages are stalled in this MB (Unspecified)
system.ruby.network.routers4.port_buffers5.m_buf_msgs     0.001250                       # Average number of messages in buffer (Unspecified)
system.ruby.network.routers4.port_buffers5.m_stall_time    25.051534                       # Average number of cycles messages are stalled in this MB (Unspecified)
system.ruby.network.routers4.power_state.pwrStateResidencyTicks::UNDEFINED       200001                       # Cumulative time (in ticks) in various power states (Tick)
system.ruby.network.routers4.throttle00.link_utilization     0.070000                       (Unspecified)
system.ruby.network.routers4.throttle00.msg_count.Control::0           30                       (Unspecified)
system.ruby.network.routers4.throttle00.msg_bytes.Control::0          240                       (Unspecified)
system.ruby.network.routers4.throttle00.msg_count.Response_Data::1           20                       (Unspecified)
system.ruby.network.routers4.throttle00.msg_bytes.Response_Data::1         1440                       (Unspecified)
system.ruby.network.routers4.throttle00.msg_count.Response_Control::0           10                       (Unspecified)
system.ruby.network.routers4.throttle00.msg_count.Response_Control::1           40                       (Unspecified)
system.ruby.network.routers4.throttle00.msg_count.Response_Control::2           20                       (Unspecified)
system.ruby.network.routers4.throttle00.msg_bytes.Response_Control::0           80                       (Unspecified)
system.ruby.network.routers4.throttle00.msg_bytes.Response_Control::1          320                       (Unspecified)
system.ruby.network.routers4.throttle00.msg_bytes.Response_Control::2          160                       (Unspecified)
system.ruby.network.routers4.throttle01.link_utilization     0.055000                       (Unspecified)
system.ruby.network.routers4.throttle01.msg_count.Control::0           10                       (Unspecified)
system.ruby.network.routers4.throttle01.msg_bytes.Control::0           80                       (Unspecified)
system.ruby.network.routers4.throttle01.msg_count.Request_Control::2           20                       (Unspecified)
system.ruby.network.routers4.throttle01.msg_bytes.Request_Control::2          160                       (Unspecified)
system.ruby.network.routers4.throttle01.msg_count.Response_Data::1           20                       (Unspecified)
system.ruby.network.routers4.throttle01.msg_bytes.Response_Data::1         1440                       (Unspecified)
system.ruby.network.routers4.throttle01.msg_count.Response_Control::1           10                       (Unspecified)
system.ruby.network.routers4.throttle01.msg_bytes.Response_Control::1           80                       (Unspecified)
system.ruby.network.routers5.percent_links_utilized            0                       (Unspecified)
system.ruby.network.routers5.power_state.pwrStateResidencyTicks::UNDEFINED       200001                       # Cumulative time (in ticks) in various power states (Tick)
system.ruby.network.routers5.throttle00.link_utilization            0                       (Unspecified)
system.ruby.network.routers5.throttle01.link_utilization            0                       (Unspecified)
system.ruby.network.routers6.percent_links_utilized            0                       (Unspecified)
system.ruby.network.routers6.power_state.pwrStateResidencyTicks::UNDEFINED       200001                       # Cumulative time (in ticks) in various power states (Tick)
system.ruby.network.routers6.throttle00.link_utilization            0                       (Unspecified)
system.ruby.network.routers6.throttle01.link_utilization            0                       (Unspecified)
system.ruby.network.routers7.percent_links_utilized            0                       (Unspecified)
system.ruby.network.routers7.power_state.pwrStateResidencyTicks::UNDEFINED       200001                       # Cumulative time (in ticks) in various power states (Tick)
system.ruby.network.routers7.throttle00.link_utilization            0                       (Unspecified)
system.ruby.network.routers7.throttle01.link_utilization            0                       (Unspecified)
system.ruby.network.routers8.percent_links_utilized     0.015000                       (Unspecified)
system.ruby.network.routers8.msg_count.Control::0           10                       (Unspecified)
system.ruby.network.routers8.msg_bytes.Control::0           80                       (Unspecified)
system.ruby.network.routers8.msg_count.Response_Data::1           10                       (Unspecified)
system.ruby.network.routers8.msg_bytes.Response_Data::1          720                       (Unspecified)
system.ruby.network.routers8.msg_count.Response_Control::1           20                       (Unspecified)
system.ruby.network.routers8.msg_bytes.Response_Control::1          160                       (Unspecified)
system.ruby.network.routers8.port_buffers0.m_buf_msgs     0.000660                       # Average number of messages in buffer (Unspecified)
system.ruby.network.routers8.port_buffers0.m_stall_time   111.303622                       # Average number of cycles messages are stalled in this MB (Unspecified)
system.ruby.network.routers8.port_buffers1.m_buf_msgs     0.001240                       # Average number of messages in buffer (Unspecified)
system.ruby.network.routers8.port_buffers1.m_stall_time    89.705613                       # Average number of cycles messages are stalled in this MB (Unspecified)
system.ruby.network.routers8.port_buffers3.m_buf_msgs     0.001865                       # Average number of messages in buffer (Unspecified)
system.ruby.network.routers8.port_buffers3.m_stall_time    36.943851                       # Average number of cycles messages are stalled in this MB (Unspecified)
system.ruby.network.routers8.power_state.pwrStateResidencyTicks::UNDEFINED       200001                       # Cumulative time (in ticks) in various power states (Tick)
system.ruby.network.routers8.throttle00.link_utilization     0.005000                       (Unspecified)
system.ruby.network.routers8.throttle00.msg_count.Control::0           10                       (Unspecified)
system.ruby.network.routers8.throttle00.msg_bytes.Control::0           80                       (Unspecified)
system.ruby.network.routers8.throttle00.msg_count.Response_Control::1           10                       (Unspecified)
system.ruby.network.routers8.throttle00.msg_bytes.Response_Control::1           80                       (Unspecified)
system.ruby.network.routers8.throttle01.link_utilization     0.025000                       (Unspecified)
system.ruby.network.routers8.throttle01.msg_count.Response_Data::1           10                       (Unspecified)
system.ruby.network.routers8.throttle01.msg_bytes.Response_Data::1          720                       (Unspecified)
system.ruby.network.routers8.throttle01.msg_count.Response_Control::1           10                       (Unspecified)
system.ruby.network.routers8.throttle01.msg_bytes.Response_Control::1           80                       (Unspecified)
system.ruby.network.routers9.percent_links_utilized     0.016944                       (Unspecified)
system.ruby.network.routers9.msg_count.Control::0           40                       (Unspecified)
system.ruby.network.routers9.msg_bytes.Control::0          320                       (Unspecified)
system.ruby.network.routers9.msg_count.Request_Control::2           40                       (Unspecified)
system.ruby.network.routers9.msg_bytes.Request_Control::2          320                       (Unspecified)
system.ruby.network.routers9.msg_count.Response_Data::1           50                       (Unspecified)
system.ruby.network.routers9.msg_bytes.Response_Data::1         3600                       (Unspecified)
system.ruby.network.routers9.msg_count.Response_Control::0           10                       (Unspecified)
system.ruby.network.routers9.msg_count.Response_Control::1           50                       (Unspecified)
system.ruby.network.routers9.msg_count.Response_Control::2           20                       (Unspecified)
system.ruby.network.routers9.msg_bytes.Response_Control::0           80                       (Unspecified)
system.ruby.network.routers9.msg_bytes.Response_Control::1          400                       (Unspecified)
system.ruby.network.routers9.msg_bytes.Response_Control::2          160                       (Unspecified)
system.ruby.network.routers9.port_buffers1.m_buf_msgs     0.000670                       # Average number of messages in buffer (Unspecified)
system.ruby.network.routers9.port_buffers1.m_stall_time    94.371116                       # Average number of cycles messages are stalled in this MB (Unspecified)
system.ruby.network.routers9.port_buffers12.m_buf_msgs     0.004360                       # Average number of messages in buffer (Unspecified)
system.ruby.network.routers9.port_buffers12.m_stall_time    76.585454                       # Average number of cycles messages are stalled in this MB (Unspecified)
system.ruby.network.routers9.port_buffers13.m_buf_msgs     0.006840                       # Average number of messages in buffer (Unspecified)
system.ruby.network.routers9.port_buffers13.m_stall_time    82.844002                       # Average number of cycles messages are stalled in this MB (Unspecified)
system.ruby.network.routers9.port_buffers14.m_buf_msgs     0.001835                       # Average number of messages in buffer (Unspecified)
system.ruby.network.routers9.port_buffers14.m_stall_time    64.909056                       # Average number of cycles messages are stalled in this MB (Unspecified)
system.ruby.network.routers9.port_buffers2.m_buf_msgs     0.000630                       # Average number of messages in buffer (Unspecified)
system.ruby.network.routers9.port_buffers2.m_stall_time    50.088894                       # Average number of cycles messages are stalled in this MB (Unspecified)
system.ruby.network.routers9.port_buffers24.m_buf_msgs     0.000115                       # Average number of messages in buffer (Unspecified)
system.ruby.network.routers9.port_buffers24.m_stall_time    64.157083                       # Average number of cycles messages are stalled in this MB (Unspecified)
system.ruby.network.routers9.port_buffers25.m_buf_msgs     0.000645                       # Average number of messages in buffer (Unspecified)
system.ruby.network.routers9.port_buffers25.m_stall_time    62.553864                       # Average number of cycles messages are stalled in this MB (Unspecified)
system.ruby.network.routers9.port_buffers4.m_buf_msgs     0.000690                       # Average number of messages in buffer (Unspecified)
system.ruby.network.routers9.port_buffers4.m_stall_time    41.283322                       # Average number of cycles messages are stalled in this MB (Unspecified)
system.ruby.network.routers9.port_buffers5.m_buf_msgs     0.001845                       # Average number of messages in buffer (Unspecified)
system.ruby.network.routers9.port_buffers5.m_stall_time    55.841272                       # Average number of cycles messages are stalled in this MB (Unspecified)
system.ruby.network.routers9.port_buffers7.m_buf_msgs     0.000695                       # Average number of messages in buffer (Unspecified)
system.ruby.network.routers9.port_buffers7.m_stall_time    93.784217                       # Average number of cycles messages are stalled in this MB (Unspecified)
system.ruby.network.routers9.port_buffers8.m_buf_msgs     0.000130                       # Average number of messages in buffer (Unspecified)
system.ruby.network.routers9.port_buffers8.m_stall_time    40.425641                       # Average number of cycles messages are stalled in this MB (Unspecified)
system.ruby.network.routers9.power_state.pwrStateResidencyTicks::UNDEFINED       200001                       # Cumulative time (in ticks) in various power states (Tick)
system.ruby.network.routers9.throttle00.link_utilization     0.025000                       (Unspecified)
system.ruby.network.routers9.throttle00.msg_count.Request_Control::2           10                       (Unspecified)
system.ruby.network.routers9.throttle00.msg_bytes.Request_Control::2           80                       (Unspecified)
system.ruby.network.routers9.throttle00.msg_count.Response_Data::1           10                       (Unspecified)
system.ruby.network.routers9.throttle00.msg_bytes.Response_Data::1          720                       (Unspecified)
system.ruby.network.routers9.throttle01.link_utilization     0.027500                       (Unspecified)
system.ruby.network.routers9.throttle01.msg_count.Request_Control::2           20                       (Unspecified)
system.ruby.network.routers9.throttle01.msg_bytes.Request_Control::2          160                       (Unspecified)
system.ruby.network.routers9.throttle01.msg_count.Response_Data::1           10                       (Unspecified)
system.ruby.network.routers9.throttle01.msg_bytes.Response_Data::1          720                       (Unspecified)
system.ruby.network.routers9.throttle02.link_utilization     0.025000                       (Unspecified)
system.ruby.network.routers9.throttle02.msg_count.Request_Control::2           10                       (Unspecified)
system.ruby.network.routers9.throttle02.msg_bytes.Request_Control::2           80                       (Unspecified)
system.ruby.network.routers9.throttle02.msg_count.Response_Data::1           10                       (Unspecified)
system.ruby.network.routers9.throttle02.msg_bytes.Response_Data::1          720                       (Unspecified)
system.ruby.network.routers9.throttle03.link_utilization            0                       (Unspecified)
system.ruby.network.routers9.throttle04.link_utilization     0.070000                       (Unspecified)
system.ruby.network.routers9.throttle04.msg_count.Control::0           30                       (Unspecified)
system.ruby.network.routers9.throttle04.msg_bytes.Control::0          240                       (Unspecified)
system.ruby.network.routers9.throttle04.msg_count.Response_Data::1           20                       (Unspecified)
system.ruby.network.routers9.throttle04.msg_bytes.Response_Data::1         1440                       (Unspecified)
system.ruby.network.routers9.throttle04.msg_count.Response_Control::0           10                       (Unspecified)
system.ruby.network.routers9.throttle04.msg_count.Response_Control::1           40                       (Unspecified)
system.ruby.network.routers9.throttle04.msg_count.Response_Control::2           20                       (Unspecified)
system.ruby.network.routers9.throttle04.msg_bytes.Response_Control::0           80                       (Unspecified)
system.ruby.network.routers9.throttle04.msg_bytes.Response_Control::1          320                       (Unspecified)
system.ruby.network.routers9.throttle04.msg_bytes.Response_Control::2          160                       (Unspecified)
system.ruby.network.routers9.throttle05.link_utilization            0                       (Unspecified)
system.ruby.network.routers9.throttle06.link_utilization            0                       (Unspecified)
system.ruby.network.routers9.throttle07.link_utilization            0                       (Unspecified)
system.ruby.network.routers9.throttle08.link_utilization     0.005000                       (Unspecified)
system.ruby.network.routers9.throttle08.msg_count.Control::0           10                       (Unspecified)
system.ruby.network.routers9.throttle08.msg_bytes.Control::0           80                       (Unspecified)
system.ruby.network.routers9.throttle08.msg_count.Response_Control::1           10                       (Unspecified)
system.ruby.network.routers9.throttle08.msg_bytes.Response_Control::1           80                       (Unspecified)
system.ruby.power_state.pwrStateResidencyTicks::UNDEFINED       200001                       # Cumulative time (in ticks) in various power states (Tick)
system.sys_port_proxy.power_state.pwrStateResidencyTicks::UNDEFINED       200001                       # Cumulative time (in ticks) in various power states (Tick)
system.voltage_domain.voltage                       1                       # Voltage in Volts (Volt)

---------- End Simulation Statistics   ----------
